168
Lattice="18.6021869512 0.0 0.0 1.35160295604e-15 22.0733513857 0.0 0.0 0.0 17.9298329584" Properties=species:S:1:pos:R:3:Z:I:1 unit_cell=conventional pbc="T T F"
Mo      0.93279969       4.30082697       6.30276466       42 
Mo      5.36657514       4.30082697      11.62706025       42 
Mo      7.76066265       4.30082697       5.12515027       42 
Mo      3.79000259       6.73584873      11.75221857       42 
Mo      8.65732062       6.73584873       6.42792299       42 
Mo      6.26323311       6.73584873      12.92983296       42 
Mo      0.93279504       7.97972622      11.67275617       42 
Mo      0.71602375       7.97972622       8.94206852       42 
Mo      7.76065800       7.97972622      10.49514178       42 
Mo      8.44055863      10.41473694       9.06721879       42 
Mo      8.65732062      10.41473694      11.79790644       42 
Mo      1.61269102      10.41473694      10.24484123       42 
Mo      5.58333713       0.62193875       8.98776444       42 
Mo      5.36657514       0.62193875       6.25707679       42 
Mo      3.11011126       0.62193875       7.81014200       42 
Mo      3.79000724       3.05694947       6.38222707       42 
Mo      4.00677853       3.05694947       9.11291471       42 
Mo      6.26323776       3.05694947       7.55984145       42 
S      8.13867769       4.61305452       7.53302641       16 
S      7.47961151       4.61305452      12.82643919       16 
S      3.09228107       4.61305452      10.75050086       16 
S      5.88521807       6.42362117      10.52195682       16 
S      6.54428425       6.42362117       5.22854404       16 
S      1.63052122       6.42362117       7.30448237       16 
S      0.03612777       8.58363104       5.00000000       16 
S      0.03612777       2.45304465       5.00000000       16 
S      8.13867769       8.29194274      12.90300986       16 
S      2.82906942       8.29194274      10.14144747       16 
S      7.74283711       8.29194274       8.06550108       16 
S      1.23467598      10.10252043       7.83696509       16 
S      6.54428425      10.10252043      10.59852749       16 
S      1.63051657      10.10252043      12.67447388       16 
S      0.03612312       1.22585461      10.36999151       16 
S      0.03612312       6.13193287      10.36999151       16 
S      3.48812630       0.93415527      10.21801814       16 
S      7.47961151       0.93415527       7.45645574       16 
S      3.09228572       0.93415527       5.38050935       16 
S      5.88521807       2.74473295       5.15197337       16 
S      1.89373286       2.74473295       7.91353577       16 
S      6.28105865       2.74473295       9.98948215       16 
S      4.68667916       4.90474282       7.68499173       16 
S      4.68667916       9.81082109       7.68499173       16 
Mo      0.93279969      15.33750266       6.30276466       42 
Mo      5.36657514      15.33750266      11.62706025       42 
Mo      7.76066265      15.33750266       5.12515027       42 
Mo      3.79000259      17.77252442      11.75221857       42 
Mo      8.65732062      17.77252442       6.42792299       42 
Mo      6.26323311      17.77252442      12.92983296       42 
Mo      0.93279504      19.01640192      11.67275617       42 
Mo      0.71602375      19.01640192       8.94206852       42 
Mo      7.76065800      19.01640192      10.49514178       42 
Mo      8.44055863      21.45141264       9.06721879       42 
Mo      8.65732062      21.45141264      11.79790644       42 
Mo      1.61269102      21.45141264      10.24484123       42 
Mo      5.58333713      11.65861444       8.98776444       42 
Mo      5.36657514      11.65861444       6.25707679       42 
Mo      3.11011126      11.65861444       7.81014200       42 
Mo      3.79000724      14.09362516       6.38222707       42 
Mo      4.00677853      14.09362516       9.11291471       42 
Mo      6.26323776      14.09362516       7.55984145       42 
S      8.13867769      15.64973022       7.53302641       16 
S      7.47961151      15.64973022      12.82643919       16 
S      3.09228107      15.64973022      10.75050086       16 
S      5.88521807      17.46029686      10.52195682       16 
S      6.54428425      17.46029686       5.22854404       16 
S      1.63052122      17.46029686       7.30448237       16 
S      0.03612777      19.62030674       5.00000000       16 
S      0.03612777      13.48972034       5.00000000       16 
S      8.13867769      19.32861843      12.90300986       16 
S      2.82906942      19.32861843      10.14144747       16 
S      7.74283711      19.32861843       8.06550108       16 
S      1.23467598      21.13919612       7.83696509       16 
S      6.54428425      21.13919612      10.59852749       16 
S      1.63051657      21.13919612      12.67447388       16 
S      0.03612312      12.26253030      10.36999151       16 
S      0.03612312      17.16860856      10.36999151       16 
S      3.48812630      11.97083096      10.21801814       16 
S      7.47961151      11.97083096       7.45645574       16 
S      3.09228572      11.97083096       5.38050935       16 
S      5.88521807      13.78140864       5.15197337       16 
S      1.89373286      13.78140864       7.91353577       16 
S      6.28105865      13.78140864       9.98948215       16 
S      4.68667916      15.94141852       7.68499173       16 
S      4.68667916      20.84749678       7.68499173       16 
Mo     10.23389316       4.30082697       6.30276466       42 
Mo     14.66766862       4.30082697      11.62706025       42 
Mo     17.06175613       4.30082697       5.12515027       42 
Mo     13.09109607       6.73584873      11.75221857       42 
Mo     17.95841409       6.73584873       6.42792299       42 
Mo     15.56432658       6.73584873      12.92983296       42 
Mo     10.23388851       7.97972622      11.67275617       42 
Mo     10.01711723       7.97972622       8.94206852       42 
Mo     17.06175148       7.97972622      10.49514178       42 
Mo     17.74165211      10.41473694       9.06721879       42 
Mo     17.95841409      10.41473694      11.79790644       42 
Mo     10.91378450      10.41473694      10.24484123       42 
Mo     14.88443060       0.62193875       8.98776444       42 
Mo     14.66766862       0.62193875       6.25707679       42 
Mo     12.41120474       0.62193875       7.81014200       42 
Mo     13.09110072       3.05694947       6.38222707       42 
Mo     13.30787200       3.05694947       9.11291471       42 
Mo     15.56433123       3.05694947       7.55984145       42 
S     17.43977117       4.61305452       7.53302641       16 
S     16.78070499       4.61305452      12.82643919       16 
S     12.39337454       4.61305452      10.75050086       16 
S     15.18631154       6.42362117      10.52195682       16 
S     15.84537772       6.42362117       5.22854404       16 
S     10.93161469       6.42362117       7.30448237       16 
S      9.33722125       8.58363104       5.00000000       16 
S      9.33722125       2.45304465       5.00000000       16 
S     17.43977117       8.29194274      12.90300986       16 
S     12.13016290       8.29194274      10.14144747       16 
S     17.04393058       8.29194274       8.06550108       16 
S     10.53576945      10.10252043       7.83696509       16 
S     15.84537772      10.10252043      10.59852749       16 
S     10.93161004      10.10252043      12.67447388       16 
S      9.33721660       1.22585461      10.36999151       16 
S      9.33721660       6.13193287      10.36999151       16 
S     12.78921978       0.93415527      10.21801814       16 
S     16.78070499       0.93415527       7.45645574       16 
S     12.39337919       0.93415527       5.38050935       16 
S     15.18631154       2.74473295       5.15197337       16 
S     11.19482634       2.74473295       7.91353577       16 
S     15.58215213       2.74473295       9.98948215       16 
S     13.98777264       4.90474282       7.68499173       16 
S     13.98777264       9.81082109       7.68499173       16 
Mo     10.23389316      15.33750266       6.30276466       42 
Mo     14.66766862      15.33750266      11.62706025       42 
Mo     17.06175613      15.33750266       5.12515027       42 
Mo     13.09109607      17.77252442      11.75221857       42 
Mo     17.95841409      17.77252442       6.42792299       42 
Mo     15.56432658      17.77252442      12.92983296       42 
Mo     10.23388851      19.01640192      11.67275617       42 
Mo     10.01711723      19.01640192       8.94206852       42 
Mo     17.06175148      19.01640192      10.49514178       42 
Mo     17.74165211      21.45141264       9.06721879       42 
Mo     17.95841409      21.45141264      11.79790644       42 
Mo     10.91378450      21.45141264      10.24484123       42 
Mo     14.88443060      11.65861444       8.98776444       42 
Mo     14.66766862      11.65861444       6.25707679       42 
Mo     12.41120474      11.65861444       7.81014200       42 
Mo     13.09110072      14.09362516       6.38222707       42 
Mo     13.30787200      14.09362516       9.11291471       42 
Mo     15.56433123      14.09362516       7.55984145       42 
S     17.43977117      15.64973022       7.53302641       16 
S     16.78070499      15.64973022      12.82643919       16 
S     12.39337454      15.64973022      10.75050086       16 
S     15.18631154      17.46029686      10.52195682       16 
S     15.84537772      17.46029686       5.22854404       16 
S     10.93161469      17.46029686       7.30448237       16 
S      9.33722125      19.62030674       5.00000000       16 
S      9.33722125      13.48972034       5.00000000       16 
S     17.43977117      19.32861843      12.90300986       16 
S     12.13016290      19.32861843      10.14144747       16 
S     17.04393058      19.32861843       8.06550108       16 
S     10.53576945      21.13919612       7.83696509       16 
S     15.84537772      21.13919612      10.59852749       16 
S     10.93161004      21.13919612      12.67447388       16 
S      9.33721660      12.26253030      10.36999151       16 
S      9.33721660      17.16860856      10.36999151       16 
S     12.78921978      11.97083096      10.21801814       16 
S     16.78070499      11.97083096       7.45645574       16 
S     12.39337919      11.97083096       5.38050935       16 
S     15.18631154      13.78140864       5.15197337       16 
S     11.19482634      13.78140864       7.91353577       16 
S     15.58215213      13.78140864       9.98948215       16 
S     13.98777264      15.94141852       7.68499173       16 
S     13.98777264      20.84749678       7.68499173       16 
