64
Lattice="14.8477760465 0.0 0.0 -7.42388802324 12.8585512459 0.0 0.0 -0.0 14.5461843911" Properties=species:S:1:pos:R:3:Z:I:1 unit_cell=conventional pbc="T T F"
Sc      1.85597201       5.35772969       5.00000000       21 
Sc      3.71194401       2.14309187       5.00000000       21 
Sc     -0.00000000       2.14309187       5.00000000       21 
Sc     -1.85597201       5.35772969       5.00000000       21 
S      0.00000000       0.00000000       6.51539480       16 
S     -1.85597201       3.21463781       6.51539480       16 
S      1.85597201       3.21463781       6.51539480       16 
S      3.71194401       0.00000000       6.51539480       16 
Sc      1.85597201       1.07154594       8.03078959       21 
Sc      0.00000000       4.28618375       8.03078959       21 
Sc      3.71194401       4.28618375       8.03078959       21 
Sc      5.56791602       1.07154594       8.03078959       21 
S      3.71194401       2.14309187       9.54618439       16 
S      1.85597201       5.35772969       9.54618439       16 
S     -1.85597201       5.35772969       9.54618439       16 
S      0.00000000       2.14309187       9.54618439       16 
Sc     -1.85597201      11.78700531       5.00000000       21 
Sc     -0.00000000       8.57236750       5.00000000       21 
Sc     -3.71194401       8.57236750       5.00000000       21 
Sc     -5.56791602      11.78700531       5.00000000       21 
S     -3.71194401       6.42927562       6.51539480       16 
S     -5.56791602       9.64391343       6.51539480       16 
S     -1.85597201       9.64391343       6.51539480       16 
S      0.00000000       6.42927562       6.51539480       16 
Sc     -1.85597201       7.50082156       8.03078959       21 
Sc     -3.71194401      10.71545937       8.03078959       21 
Sc      0.00000000      10.71545937       8.03078959       21 
Sc      1.85597201       7.50082156       8.03078959       21 
S      0.00000000       8.57236750       9.54618439       16 
S     -1.85597201      11.78700531       9.54618439       16 
S     -5.56791602      11.78700531       9.54618439       16 
S     -3.71194401       8.57236750       9.54618439       16 
Sc      9.27986003       5.35772969       5.00000000       21 
Sc     11.13583203       2.14309187       5.00000000       21 
Sc      7.42388802       2.14309187       5.00000000       21 
Sc      5.56791602       5.35772969       5.00000000       21 
S      7.42388802       0.00000000       6.51539480       16 
S      5.56791602       3.21463781       6.51539480       16 
S      9.27986003       3.21463781       6.51539480       16 
S     11.13583203       0.00000000       6.51539480       16 
Sc      9.27986003       1.07154594       8.03078959       21 
Sc      7.42388802       4.28618375       8.03078959       21 
Sc     11.13583203       4.28618375       8.03078959       21 
Sc     12.99180404       1.07154594       8.03078959       21 
S     11.13583203       2.14309187       9.54618439       16 
S      9.27986003       5.35772969       9.54618439       16 
S      5.56791602       5.35772969       9.54618439       16 
S      7.42388802       2.14309187       9.54618439       16 
Sc      5.56791602      11.78700531       5.00000000       21 
Sc      7.42388802       8.57236750       5.00000000       21 
Sc      3.71194401       8.57236750       5.00000000       21 
Sc      1.85597201      11.78700531       5.00000000       21 
S      3.71194401       6.42927562       6.51539480       16 
S      1.85597201       9.64391343       6.51539480       16 
S      5.56791602       9.64391343       6.51539480       16 
S      7.42388802       6.42927562       6.51539480       16 
Sc      5.56791602       7.50082156       8.03078959       21 
Sc      3.71194401      10.71545937       8.03078959       21 
Sc      7.42388802      10.71545937       8.03078959       21 
Sc      9.27986003       7.50082156       8.03078959       21 
S      7.42388802       8.57236750       9.54618439       16 
S      5.56791602      11.78700531       9.54618439       16 
S      1.85597201      11.78700531       9.54618439       16 
S      3.71194401       8.57236750       9.54618439       16 
