448
Lattice="36.6007845438 0.0 0.0 -18.30039227192 34.3044355556 0.0 0.0 -0.0 15.7957047433" Properties=species:S:1:pos:R:3 unit_cell=conventional pbc="T T F"
V       7.98029448       2.01201147      10.13684801 
V       2.76812548       3.03958431       5.23823595 
V       0.63556470       8.48626595       7.49236631 
V      -0.63556470       7.41187765       5.27309511 
V       1.80697259       4.28245040       7.52722546 
V       5.74499973       4.05594906       5.65885674 
S       4.57447680       2.12578287       6.63469798 
S       0.00062127       5.19625184       6.13076343 
S       1.10675833       2.21423887       6.67127315 
S      -1.65473779       8.01405494       7.29694537 
S       7.33527668       2.46386303       5.00000000 
S       6.39001753       4.85817168       7.76546141 
S       3.46833974       5.10779584       6.09418827 
S       1.65473779       7.88408866       5.46851604 
V      -1.16990166       3.26608565       7.10660468 
V       2.76812548       1.78551014       8.26847928 
V       0.63556470       7.23219178      10.52260964 
V      -0.63556470       6.15780347       8.30333844 
V       1.80697259       3.02837623      10.55746879 
V       5.74499973       2.80187489       8.68910007 
S       4.57447680       0.87170870       9.66494131 
S       0.00062127       3.94217766       9.16100676 
S       1.10675833       0.96016470       9.70151648 
S      -1.65473779       6.75998077      10.32718871 
S       7.33527668       1.20978886       8.03024333 
S       6.39001753       3.60409751      10.79570474 
S       3.46833974       3.85372167       9.12443160 
S       1.65473779       6.63001448       8.49875937 
V      -5.74499973      11.84219454       7.10660468 
V      -1.80697259      11.61569320       5.23823595 
V      -3.93953337      17.06237484       7.49236631 
V      -5.21066277      15.98798654       5.27309511 
V      -2.76812548      12.85855929       7.52722546 
V       1.16990166      12.63205795       5.65885674 
S      -0.00062127      10.70189176       6.63469798 
S      -4.57447680      13.77236073       6.13076343 
S      -3.46833974      10.79034776       6.67127315 
S      -6.22983586      16.59016383       7.29694537 
S       2.76017861      11.03997192       5.00000000 
S       1.81491946      13.43428057       7.76546141 
S      -1.10675833      13.68390473       6.09418827 
S      -2.92036028      16.46019755       5.46851604 
V       3.40519641      10.58812036      10.13684801 
V      -1.80697259      10.36161903       8.26847928 
V      -3.93953337      15.80830067      10.52260964 
V      -5.21066277      14.73391236       8.30333844 
V      -2.76812548      11.60448512      10.55746879 
V       1.16990166      11.37798378       8.68910007 
S      -0.00062127       9.44781759       9.66494131 
S      -4.57447680      12.51828655       9.16100676 
S      -3.46833974       9.53627358       9.70151648 
S      -6.22983586      15.33608966      10.32718871 
S       2.76017861       9.78589775       8.03024333 
S       1.81491946      12.18020640      10.79570474 
S      -1.10675833      12.42983056       9.12443160 
S      -2.92036028      15.20612337       8.49875937 
V       7.98029448       3.26608565       7.10660468 
V      11.91832162       3.03958431       5.23823595 
V       9.78576084       8.48626595       7.49236631 
V       8.51463143       7.41187765       5.27309511 
V      10.95716872       4.28245040       7.52722546 
V      14.89519586       4.05594906       5.65885674 
S      13.72467294       2.12578287       6.63469798 
S       9.15081740       5.19625184       6.13076343 
S      10.25695447       2.21423887       6.67127315 
S       7.49545835       8.01405494       7.29694537 
S      16.48547281       2.46386303       5.00000000 
S      15.54021366       4.85817168       7.76546141 
S      12.61853587       5.10779584       6.09418827 
S      10.80493392       7.88408866       5.46851604 
V      17.13049061       2.01201147      10.13684801 
V      11.91832162       1.78551014       8.26847928 
V       9.78576084       7.23219178      10.52260964 
V       8.51463143       6.15780347       8.30333844 
V      10.95716872       3.02837623      10.55746879 
V      14.89519586       2.80187489       8.68910007 
S      13.72467294       0.87170870       9.66494131 
S       9.15081740       3.94217766       9.16100676 
S      10.25695447       0.96016470       9.70151648 
S       7.49545835       6.75998077      10.32718871 
S      16.48547281       1.20978886       8.03024333 
S      15.54021366       3.60409751      10.79570474 
S      12.61853587       3.85372167       9.12443160 
S      10.80493392       6.63001448       8.49875937 
V       3.40519641      11.84219454       7.10660468 
V       7.34322355      11.61569320       5.23823595 
V       5.21066277      17.06237484       7.49236631 
V       3.93953337      15.98798654       5.27309511 
V       6.38207066      12.85855929       7.52722546 
V      10.32009779      12.63205795       5.65885674 
S       9.14957487      10.70189176       6.63469798 
S       4.57571934      13.77236073       6.13076343 
S       5.68185640      10.79034776       6.67127315 
S       2.92036028      16.59016383       7.29694537 
S      11.91037475      11.03997192       5.00000000 
S      10.96511559      13.43428057       7.76546141 
S       8.04343780      13.68390473       6.09418827 
S       6.22983586      16.46019755       5.46851604 
V      12.55539255      10.58812036      10.13684801 
V       7.34322355      10.36161903       8.26847928 
V       5.21066277      15.80830067      10.52260964 
V       3.93953337      14.73391236       8.30333844 
V       6.38207066      11.60448512      10.55746879 
V      10.32009779      11.37798378       8.68910007 
S       9.14957487       9.44781759       9.66494131 
S       4.57571934      12.51828655       9.16100676 
S       5.68185640       9.53627358       9.70151648 
S       2.92036028      15.33608966      10.32718871 
S      11.91037475       9.78589775       8.03024333 
S      10.96511559      12.18020640      10.79570474 
S       8.04343780      12.42983056       9.12443160 
S       6.22983586      15.20612337       8.49875937 
V     -10.32009780      20.41830343       7.10660468 
V      -6.38207066      20.19180209       5.23823595 
V      -8.51463144      25.63848373       7.49236631 
V      -9.78576084      24.56409543       5.27309511 
V      -7.34322355      21.43466818       7.52722546 
V      -3.40519641      21.20816684       5.65885674 
S      -4.57571934      19.27800065       6.63469798 
S      -9.14957487      22.34846962       6.13076343 
S      -8.04343781      19.36645665       6.67127315 
S     -10.80493393      25.16627272       7.29694537 
S      -1.81491946      19.61608081       5.00000000 
S      -2.76017861      22.01038946       7.76546141 
S      -5.68185640      22.26001362       6.09418827 
S      -7.49545835      25.03630644       5.46851604 
V      -1.16990166      19.16422925      10.13684801 
V      -6.38207066      18.93772792       8.26847928 
V      -8.51463144      24.38440956      10.52260964 
V      -9.78576084      23.31002125       8.30333844 
V      -7.34322355      20.18059401      10.55746879 
V      -3.40519641      19.95409267       8.68910007 
S      -4.57571934      18.02392648       9.66494131 
S      -9.14957487      21.09439544       9.16100676 
S      -8.04343781      18.11238248       9.70151648 
S     -10.80493393      23.91219855      10.32718871 
S      -1.81491946      18.36200664       8.03024333 
S      -2.76017861      20.75631529      10.79570474 
S      -5.68185640      21.00593945       9.12443160 
S      -7.49545835      23.78223226       8.49875937 
V     -14.89519587      28.99441232       7.10660468 
V     -10.95716873      28.76791098       5.23823595 
V     -13.08972951      34.21459262       7.49236631 
V     -14.36085891      33.14020432       5.27309511 
V     -11.91832162      30.01077707       7.52722546 
V      -7.98029448      29.78427573       5.65885674 
S      -9.15081741      27.85410954       6.63469798 
S     -13.72467294      30.92457851       6.13076343 
S     -12.61853588      27.94256554       6.67127315 
S     -15.38003200      33.74238161       7.29694537 
S      -6.39001753      28.19218970       5.00000000 
S      -7.33527668      30.58649835       7.76546141 
S     -10.25695447      30.83612251       6.09418827 
S     -12.07055642      33.61241533       5.46851604 
V      -5.74499973      27.74033814      10.13684801 
V     -10.95716873      27.51383681       8.26847928 
V     -13.08972951      32.96051845      10.52260964 
V     -14.36085891      31.88613014       8.30333844 
V     -11.91832162      28.75670290      10.55746879 
V      -7.98029448      28.53020156       8.68910007 
S      -9.15081741      26.60003537       9.66494131 
S     -13.72467294      29.67050433       9.16100676 
S     -12.61853588      26.68849136       9.70151648 
S     -15.38003200      32.48830744      10.32718871 
S      -6.39001753      26.93811553       8.03024333 
S      -7.33527668      29.33242418      10.79570474 
S     -10.25695447      29.58204834       9.12443160 
S     -12.07055642      32.35834115       8.49875937 
V      -1.16990166      20.41830343       7.10660468 
V       2.76812548      20.19180209       5.23823595 
V       0.63556470      25.63848373       7.49236631 
V      -0.63556471      24.56409543       5.27309511 
V       1.80697258      21.43466818       7.52722546 
V       5.74499972      21.20816684       5.65885674 
S       4.57447680      19.27800065       6.63469798 
S       0.00062126      22.34846962       6.13076343 
S       1.10675833      19.36645665       6.67127315 
S      -1.65473779      25.16627272       7.29694537 
S       7.33527667      19.61608081       5.00000000 
S       6.39001752      22.01038946       7.76546141 
S       3.46833973      22.26001362       6.09418827 
S       1.65473778      25.03630644       5.46851604 
V       7.98029447      19.16422925      10.13684801 
V       2.76812548      18.93772792       8.26847928 
V       0.63556470      24.38440956      10.52260964 
V      -0.63556471      23.31002125       8.30333844 
V       1.80697258      20.18059401      10.55746879 
V       5.74499972      19.95409267       8.68910007 
S       4.57447680      18.02392648       9.66494131 
S       0.00062126      21.09439544       9.16100676 
S       1.10675833      18.11238248       9.70151648 
S      -1.65473779      23.91219855      10.32718871 
S       7.33527667      18.36200664       8.03024333 
S       6.39001752      20.75631529      10.79570474 
S       3.46833973      21.00593945       9.12443160 
S       1.65473778      23.78223226       8.49875937 
V      -5.74499973      28.99441232       7.10660468 
V      -1.80697259      28.76791098       5.23823595 
V      -3.93953337      34.21459262       7.49236631 
V      -5.21066277      33.14020432       5.27309511 
V      -2.76812548      30.01077707       7.52722546 
V       1.16990165      29.78427573       5.65885674 
S      -0.00062127      27.85410954       6.63469798 
S      -4.57447680      30.92457851       6.13076343 
S      -3.46833974      27.94256554       6.67127315 
S      -6.22983586      33.74238161       7.29694537 
S       2.76017861      28.19218970       5.00000000 
S       1.81491945      30.58649835       7.76546141 
S      -1.10675834      30.83612251       6.09418827 
S      -2.92036028      33.61241533       5.46851604 
V       3.40519641      27.74033814      10.13684801 
V      -1.80697259      27.51383681       8.26847928 
V      -3.93953337      32.96051845      10.52260964 
V      -5.21066277      31.88613014       8.30333844 
V      -2.76812548      28.75670290      10.55746879 
V       1.16990165      28.53020156       8.68910007 
S      -0.00062127      26.60003537       9.66494131 
S      -4.57447680      29.67050433       9.16100676 
S      -3.46833974      26.68849136       9.70151648 
S      -6.22983586      32.48830744      10.32718871 
S       2.76017861      26.93811553       8.03024333 
S       1.81491945      29.33242418      10.79570474 
S      -1.10675834      29.58204834       9.12443160 
S      -2.92036028      32.35834115       8.49875937 
V      17.13049061       3.26608565       7.10660468 
V      21.06851775       3.03958431       5.23823595 
V      18.93595697       8.48626595       7.49236631 
V      17.66482757       7.41187765       5.27309511 
V      20.10736486       4.28245040       7.52722546 
V      24.04539200       4.05594906       5.65885674 
S      22.87486907       2.12578287       6.63469798 
S      18.30101354       5.19625184       6.13076343 
S      19.40715060       2.21423887       6.67127315 
S      16.64565448       8.01405494       7.29694537 
S      25.63566895       2.46386303       5.00000000 
S      24.69040980       4.85817168       7.76546141 
S      21.76873201       5.10779584       6.09418827 
S      19.95513006       7.88408866       5.46851604 
V      26.28068675       2.01201147      10.13684801 
V      21.06851775       1.78551014       8.26847928 
V      18.93595697       7.23219178      10.52260964 
V      17.66482757       6.15780347       8.30333844 
V      20.10736486       3.02837623      10.55746879 
V      24.04539200       2.80187489       8.68910007 
S      22.87486907       0.87170870       9.66494131 
S      18.30101354       3.94217766       9.16100676 
S      19.40715060       0.96016470       9.70151648 
S      16.64565448       6.75998077      10.32718871 
S      25.63566895       1.20978886       8.03024333 
S      24.69040980       3.60409751      10.79570474 
S      21.76873201       3.85372167       9.12443160 
S      19.95513006       6.63001448       8.49875937 
V      12.55539254      11.84219454       7.10660468 
V      16.49341968      11.61569320       5.23823595 
V      14.36085890      17.06237484       7.49236631 
V      13.08972950      15.98798654       5.27309511 
V      15.53226679      12.85855929       7.52722546 
V      19.47029393      12.63205795       5.65885674 
S      18.29977100      10.70189176       6.63469798 
S      13.72591547      13.77236073       6.13076343 
S      14.83205253      10.79034776       6.67127315 
S      12.07055641      16.59016383       7.29694537 
S      21.06057088      11.03997192       5.00000000 
S      20.11531173      13.43428057       7.76546141 
S      17.19363394      13.68390473       6.09418827 
S      15.38003199      16.46019755       5.46851604 
V      21.70558868      10.58812036      10.13684801 
V      16.49341968      10.36161903       8.26847928 
V      14.36085890      15.80830067      10.52260964 
V      13.08972950      14.73391236       8.30333844 
V      15.53226679      11.60448512      10.55746879 
V      19.47029393      11.37798378       8.68910007 
S      18.29977100       9.44781759       9.66494131 
S      13.72591547      12.51828655       9.16100676 
S      14.83205253       9.53627358       9.70151648 
S      12.07055641      15.33608966      10.32718871 
S      21.06057088       9.78589775       8.03024333 
S      20.11531173      12.18020640      10.79570474 
S      17.19363394      12.42983056       9.12443160 
S      15.38003199      15.20612337       8.49875937 
V      26.28068675       3.26608565       7.10660468 
V      30.21871389       3.03958431       5.23823595 
V      28.08615311       8.48626595       7.49236631 
V      26.81502370       7.41187765       5.27309511 
V      29.25756099       4.28245040       7.52722546 
V      33.19558813       4.05594906       5.65885674 
S      32.02506521       2.12578287       6.63469798 
S      27.45120967       5.19625184       6.13076343 
S      28.55734674       2.21423887       6.67127315 
S      25.79585062       8.01405494       7.29694537 
S      34.78586508       2.46386303       5.00000000 
S      33.84060593       4.85817168       7.76546141 
S      30.91892814       5.10779584       6.09418827 
S      29.10532619       7.88408866       5.46851604 
V      35.43088288       2.01201147      10.13684801 
V      30.21871389       1.78551014       8.26847928 
V      28.08615311       7.23219178      10.52260964 
V      26.81502370       6.15780347       8.30333844 
V      29.25756099       3.02837623      10.55746879 
V      33.19558813       2.80187489       8.68910007 
S      32.02506521       0.87170870       9.66494131 
S      27.45120967       3.94217766       9.16100676 
S      28.55734674       0.96016470       9.70151648 
S      25.79585062       6.75998077      10.32718871 
S      34.78586508       1.20978886       8.03024333 
S      33.84060593       3.60409751      10.79570474 
S      30.91892814       3.85372167       9.12443160 
S      29.10532619       6.63001448       8.49875937 
V      21.70558868      11.84219454       7.10660468 
V      25.64361582      11.61569320       5.23823595 
V      23.51105504      17.06237484       7.49236631 
V      22.23992564      15.98798654       5.27309511 
V      24.68246293      12.85855929       7.52722546 
V      28.62049006      12.63205795       5.65885674 
S      27.44996714      10.70189176       6.63469798 
S      22.87611161      13.77236073       6.13076343 
S      23.98224867      10.79034776       6.67127315 
S      21.22075255      16.59016383       7.29694537 
S      30.21076702      11.03997192       5.00000000 
S      29.26550786      13.43428057       7.76546141 
S      26.34383007      13.68390473       6.09418827 
S      24.53022813      16.46019755       5.46851604 
V      30.85578482      10.58812036      10.13684801 
V      25.64361582      10.36161903       8.26847928 
V      23.51105504      15.80830067      10.52260964 
V      22.23992564      14.73391236       8.30333844 
V      24.68246293      11.60448512      10.55746879 
V      28.62049006      11.37798378       8.68910007 
S      27.44996714       9.44781759       9.66494131 
S      22.87611161      12.51828655       9.16100676 
S      23.98224867       9.53627358       9.70151648 
S      21.22075255      15.33608966      10.32718871 
S      30.21076702       9.78589775       8.03024333 
S      29.26550786      12.18020640      10.79570474 
S      26.34383007      12.42983056       9.12443160 
S      24.53022813      15.20612337       8.49875937 
V       7.98029448      20.41830343       7.10660468 
V      11.91832162      20.19180209       5.23823595 
V       9.78576084      25.63848373       7.49236631 
V       8.51463144      24.56409543       5.27309511 
V      10.95716873      21.43466818       7.52722546 
V      14.89519587      21.20816684       5.65885674 
S      13.72467294      19.27800065       6.63469798 
S       9.15081741      22.34846962       6.13076343 
S      10.25695447      19.36645665       6.67127315 
S       7.49545835      25.16627272       7.29694537 
S      16.48547282      19.61608081       5.00000000 
S      15.54021367      22.01038946       7.76546141 
S      12.61853588      22.26001362       6.09418827 
S      10.80493393      25.03630644       5.46851604 
V      17.13049062      19.16422925      10.13684801 
V      11.91832162      18.93772792       8.26847928 
V       9.78576084      24.38440956      10.52260964 
V       8.51463144      23.31002125       8.30333844 
V      10.95716873      20.18059401      10.55746879 
V      14.89519587      19.95409267       8.68910007 
S      13.72467294      18.02392648       9.66494131 
S       9.15081741      21.09439544       9.16100676 
S      10.25695447      18.11238248       9.70151648 
S       7.49545835      23.91219855      10.32718871 
S      16.48547282      18.36200664       8.03024333 
S      15.54021367      20.75631529      10.79570474 
S      12.61853588      21.00593945       9.12443160 
S      10.80493393      23.78223226       8.49875937 
V       3.40519641      28.99441232       7.10660468 
V       7.34322355      28.76791098       5.23823595 
V       5.21066277      34.21459262       7.49236631 
V       3.93953337      33.14020432       5.27309511 
V       6.38207066      30.01077707       7.52722546 
V      10.32009780      29.78427573       5.65885674 
S       9.14957487      27.85410954       6.63469798 
S       4.57571934      30.92457851       6.13076343 
S       5.68185640      27.94256554       6.67127315 
S       2.92036028      33.74238161       7.29694537 
S      11.91037475      28.19218970       5.00000000 
S      10.96511560      30.58649835       7.76546141 
S       8.04343781      30.83612251       6.09418827 
S       6.22983586      33.61241533       5.46851604 
V      12.55539255      27.74033814      10.13684801 
V       7.34322355      27.51383681       8.26847928 
V       5.21066277      32.96051845      10.52260964 
V       3.93953337      31.88613014       8.30333844 
V       6.38207066      28.75670290      10.55746879 
V      10.32009780      28.53020156       8.68910007 
S       9.14957487      26.60003537       9.66494131 
S       4.57571934      29.67050433       9.16100676 
S       5.68185640      26.68849136       9.70151648 
S       2.92036028      32.48830744      10.32718871 
S      11.91037475      26.93811553       8.03024333 
S      10.96511560      29.33242418      10.79570474 
S       8.04343781      29.58204834       9.12443160 
S       6.22983586      32.35834115       8.49875937 
V      17.13049062      20.41830343       7.10660468 
V      21.06851776      20.19180209       5.23823595 
V      18.93595698      25.63848373       7.49236631 
V      17.66482757      24.56409543       5.27309511 
V      20.10736486      21.43466818       7.52722546 
V      24.04539200      21.20816684       5.65885674 
S      22.87486908      19.27800065       6.63469798 
S      18.30101354      22.34846962       6.13076343 
S      19.40715061      19.36645665       6.67127315 
S      16.64565449      25.16627272       7.29694537 
S      25.63566895      19.61608081       5.00000000 
S      24.69040980      22.01038946       7.76546141 
S      21.76873201      22.26001362       6.09418827 
S      19.95513006      25.03630644       5.46851604 
V      26.28068675      19.16422925      10.13684801 
V      21.06851776      18.93772792       8.26847928 
V      18.93595698      24.38440956      10.52260964 
V      17.66482757      23.31002125       8.30333844 
V      20.10736486      20.18059401      10.55746879 
V      24.04539200      19.95409267       8.68910007 
S      22.87486908      18.02392648       9.66494131 
S      18.30101354      21.09439544       9.16100676 
S      19.40715061      18.11238248       9.70151648 
S      16.64565449      23.91219855      10.32718871 
S      25.63566895      18.36200664       8.03024333 
S      24.69040980      20.75631529      10.79570474 
S      21.76873201      21.00593945       9.12443160 
S      19.95513006      23.78223226       8.49875937 
V      12.55539255      28.99441232       7.10660468 
V      16.49341969      28.76791098       5.23823595 
V      14.36085891      34.21459262       7.49236631 
V      13.08972951      33.14020432       5.27309511 
V      15.53226680      30.01077707       7.52722546 
V      19.47029393      29.78427573       5.65885674 
S      18.29977101      27.85410954       6.63469798 
S      13.72591548      30.92457851       6.13076343 
S      14.83205254      27.94256554       6.67127315 
S      12.07055642      33.74238161       7.29694537 
S      21.06057089      28.19218970       5.00000000 
S      20.11531173      30.58649835       7.76546141 
S      17.19363394      30.83612251       6.09418827 
S      15.38003200      33.61241533       5.46851604 
V      21.70558869      27.74033814      10.13684801 
V      16.49341969      27.51383681       8.26847928 
V      14.36085891      32.96051845      10.52260964 
V      13.08972951      31.88613014       8.30333844 
V      15.53226680      28.75670290      10.55746879 
V      19.47029393      28.53020156       8.68910007 
S      18.29977101      26.60003537       9.66494131 
S      13.72591548      29.67050433       9.16100676 
S      14.83205254      26.68849136       9.70151648 
S      12.07055642      32.48830744      10.32718871 
S      21.06057089      26.93811553       8.03024333 
S      20.11531173      29.33242418      10.79570474 
S      17.19363394      29.58204834       9.12443160 
S      15.38003200      32.35834115       8.49875937 
