176
Lattice="16.1437566605 0.0 0.0 1.36723377844e-15 22.3286220874 0.0 0.0 0.0 18.0216289577" Properties=species:S:1:pos:R:3:Z:I:1 unit_cell=conventional pbc="T T F"
Cu      6.05392084       1.73911470       9.17061045       29 
Cu      2.01796691       7.32138293      12.86455691       29 
Cu      6.05391113       9.29491864       8.37954464       29 
Cu      6.05392689       4.59194104       9.13994746       29 
Cu      0.70323603       1.79490797       7.11456275       29 
Cu      6.05391142       3.84292811       5.15707205       29 
Cu      0.19452490       4.79873955       7.65189218       29 
Cu      3.84142469       0.78337036      11.66544494       29 
Cu      7.36864230       9.36940307      10.90706620       29 
Cu      4.73922410       7.37716322       6.89359180       29 
Cu      2.01795144       6.57237000       8.88168150       29 
Cu      4.23044065       6.36557074      10.36971786       29 
Cu      4.73921180       9.36938384      10.90708498       29 
Cu      6.05389446       0.99018908       5.12644986       29 
Cu      7.87736455      10.38094297       6.35617278       29 
Cu      7.36861424       7.37715177       6.89356561       29 
Cu      6.05389752       7.45159058      12.39308345       29 
Cu      3.84143768       4.79874030       7.65191110       29 
Cu      0.19451378       0.78336808      11.66545618       29 
Cu      2.01795749       9.42519634       8.85101851       29 
Cu      2.01796720       1.86939241       9.64208432       29 
Cu      0.70326409       3.78715927      11.12806335       29 
Cu      3.33266653       1.79492720       7.11454398       29 
Cu      3.33265423       3.78714782      11.12803715       29 
Cu      7.87735343       6.36557150      10.36973677       29 
Cu      2.01798387      10.17412197      12.89517909       29 
Cu      4.23045364      10.38094068       6.35618402       29 
Cu      2.01798081       3.71272046       5.62854551       29 
S      2.01797205       5.76939171       6.69638501       16 
S      8.07024567       2.64667752       5.00001038       16 
S      6.05390628       5.39491934      11.32524394       16 
S      4.03758920       2.93542960       9.01350203       16 
S      4.03428913       8.22888145       9.00812693       16 
S      6.05390510       0.16802619      10.95814954       16 
S      0.00163266       8.51763353      13.02161857       16 
S      6.05391054       5.41412489       6.94461008       16 
S      4.03429130       8.51762980      13.02162896       16 
S      8.07025088       2.93543708       9.01351697       16 
S      2.01797323      10.99628485       7.06347942       16 
S      4.03758703       2.64668125       5.00000000       16 
S      6.05391686       0.18725148       7.31174875       16 
S      0.00162745       8.22887397       9.00811198       16 
S      2.01796779       5.75018615      11.07701888       16 
S      2.01796147      10.97705956      10.70988020       16 
Cu      6.05392084      12.90342574       9.17061045       29 
Cu      2.01796691      18.48569398      12.86455691       29 
Cu      6.05391113      20.45922968       8.37954464       29 
Cu      6.05392689      15.75625208       9.13994746       29 
Cu      0.70323603      12.95921902       7.11456275       29 
Cu      6.05391142      15.00723915       5.15707205       29 
Cu      0.19452490      15.96305059       7.65189218       29 
Cu      3.84142469      11.94768141      11.66544494       29 
Cu      7.36864230      20.53371411      10.90706620       29 
Cu      4.73922410      18.54147426       6.89359180       29 
Cu      2.01795144      17.73668105       8.88168150       29 
Cu      4.23044065      17.52988178      10.36971786       29 
Cu      4.73921180      20.53369488      10.90708498       29 
Cu      6.05389446      12.15450012       5.12644986       29 
Cu      7.87736455      21.54525401       6.35617278       29 
Cu      7.36861424      18.54146282       6.89356561       29 
Cu      6.05389752      18.61590162      12.39308345       29 
Cu      3.84143768      15.96305135       7.65191110       29 
Cu      0.19451378      11.94767912      11.66545618       29 
Cu      2.01795749      20.58950739       8.85101851       29 
Cu      2.01796720      13.03370345       9.64208432       29 
Cu      0.70326409      14.95147032      11.12806335       29 
Cu      3.33266653      12.95923825       7.11454398       29 
Cu      3.33265423      14.95145887      11.12803715       29 
Cu      7.87735343      17.52988254      10.36973677       29 
Cu      2.01798387      21.33843301      12.89517909       29 
Cu      4.23045364      21.54525173       6.35618402       29 
Cu      2.01798081      14.87703151       5.62854551       29 
S      2.01797205      16.93370275       6.69638501       16 
S      8.07024567      13.81098856       5.00001038       16 
S      6.05390628      16.55923038      11.32524394       16 
S      4.03758920      14.09974064       9.01350203       16 
S      4.03428913      19.39319249       9.00812693       16 
S      6.05390510      11.33233724      10.95814954       16 
S      0.00163266      19.68194457      13.02161857       16 
S      6.05391054      16.57843594       6.94461008       16 
S      4.03429130      19.68194084      13.02162896       16 
S      8.07025088      14.09974812       9.01351697       16 
S      2.01797323      22.16059589       7.06347942       16 
S      4.03758703      13.81099229       5.00000000       16 
S      6.05391686      11.35156253       7.31174875       16 
S      0.00162745      19.39318501       9.00811198       16 
S      2.01796779      16.91449719      11.07701888       16 
S      2.01796147      22.14137060      10.70988020       16 
Cu     14.12579917       1.73911470       9.17061045       29 
Cu     10.08984524       7.32138293      12.86455691       29 
Cu     14.12578946       9.29491864       8.37954464       29 
Cu     14.12580522       4.59194104       9.13994746       29 
Cu      8.77511436       1.79490797       7.11456275       29 
Cu     14.12578975       3.84292811       5.15707205       29 
Cu      8.26640323       4.79873955       7.65189218       29 
Cu     11.91330302       0.78337036      11.66544494       29 
Cu     15.44052063       9.36940307      10.90706620       29 
Cu     12.81110243       7.37716322       6.89359180       29 
Cu     10.08982977       6.57237000       8.88168150       29 
Cu     12.30231898       6.36557074      10.36971786       29 
Cu     12.81109013       9.36938384      10.90708498       29 
Cu     14.12577279       0.99018908       5.12644986       29 
Cu     15.94924288      10.38094297       6.35617278       29 
Cu     15.44049257       7.37715177       6.89356561       29 
Cu     14.12577585       7.45159058      12.39308345       29 
Cu     11.91331601       4.79874030       7.65191110       29 
Cu      8.26639211       0.78336808      11.66545618       29 
Cu     10.08983582       9.42519634       8.85101851       29 
Cu     10.08984553       1.86939241       9.64208432       29 
Cu      8.77514242       3.78715927      11.12806335       29 
Cu     11.40454486       1.79492720       7.11454398       29 
Cu     11.40453256       3.78714782      11.12803715       29 
Cu     15.94923176       6.36557150      10.36973677       29 
Cu     10.08986220      10.17412197      12.89517909       29 
Cu     12.30233197      10.38094068       6.35618402       29 
Cu     10.08985914       3.71272046       5.62854551       29 
S     10.08985038       5.76939171       6.69638501       16 
S     16.14212400       2.64667752       5.00001038       16 
S     14.12578461       5.39491934      11.32524394       16 
S     12.10946753       2.93542960       9.01350203       16 
S     12.10616747       8.22888145       9.00812693       16 
S     14.12578343       0.16802619      10.95814954       16 
S      8.07351099       8.51763353      13.02161857       16 
S     14.12578887       5.41412489       6.94461008       16 
S     12.10616963       8.51762980      13.02162896       16 
S     16.14212921       2.93543708       9.01351697       16 
S     10.08985156      10.99628485       7.06347942       16 
S     12.10946536       2.64668125       5.00000000       16 
S     14.12579519       0.18725148       7.31174875       16 
S      8.07350578       8.22887397       9.00811198       16 
S     10.08984612       5.75018615      11.07701888       16 
S     10.08983980      10.97705956      10.70988020       16 
Cu     14.12579917      12.90342574       9.17061045       29 
Cu     10.08984524      18.48569398      12.86455691       29 
Cu     14.12578946      20.45922968       8.37954464       29 
Cu     14.12580522      15.75625208       9.13994746       29 
Cu      8.77511436      12.95921902       7.11456275       29 
Cu     14.12578975      15.00723915       5.15707205       29 
Cu      8.26640323      15.96305059       7.65189218       29 
Cu     11.91330302      11.94768141      11.66544494       29 
Cu     15.44052063      20.53371411      10.90706620       29 
Cu     12.81110243      18.54147426       6.89359180       29 
Cu     10.08982977      17.73668105       8.88168150       29 
Cu     12.30231898      17.52988178      10.36971786       29 
Cu     12.81109013      20.53369488      10.90708498       29 
Cu     14.12577279      12.15450012       5.12644986       29 
Cu     15.94924288      21.54525401       6.35617278       29 
Cu     15.44049257      18.54146282       6.89356561       29 
Cu     14.12577585      18.61590162      12.39308345       29 
Cu     11.91331601      15.96305135       7.65191110       29 
Cu      8.26639211      11.94767912      11.66545618       29 
Cu     10.08983582      20.58950739       8.85101851       29 
Cu     10.08984553      13.03370345       9.64208432       29 
Cu      8.77514242      14.95147032      11.12806335       29 
Cu     11.40454486      12.95923825       7.11454398       29 
Cu     11.40453256      14.95145887      11.12803715       29 
Cu     15.94923176      17.52988254      10.36973677       29 
Cu     10.08986220      21.33843301      12.89517909       29 
Cu     12.30233197      21.54525173       6.35618402       29 
Cu     10.08985914      14.87703151       5.62854551       29 
S     10.08985038      16.93370275       6.69638501       16 
S     16.14212400      13.81098856       5.00001038       16 
S     14.12578461      16.55923038      11.32524394       16 
S     12.10946753      14.09974064       9.01350203       16 
S     12.10616747      19.39319249       9.00812693       16 
S     14.12578343      11.33233724      10.95814954       16 
S      8.07351099      19.68194457      13.02161857       16 
S     14.12578887      16.57843594       6.94461008       16 
S     12.10616963      19.68194084      13.02162896       16 
S     16.14212921      14.09974812       9.01351697       16 
S     10.08985156      22.16059589       7.06347942       16 
S     12.10946536      13.81099229       5.00000000       16 
S     14.12579519      11.35156253       7.31174875       16 
S      8.07350578      19.39318501       9.00811198       16 
S     10.08984612      16.91449719      11.07701888       16 
S     10.08983980      22.14137060      10.70988020       16 
