48
Lattice="7.23200448403 0.0 0.0 7.05560047112e-16 11.5226700074 0.0 0.0 0.0 17.3083982934" Properties=species:S:1:pos:R:3:Z:I:1 unit_cell=conventional pbc="T T F"
Mn      1.80504679       5.44420722       5.00242716       25 
Mn      0.00294086       2.56351931       6.04287350       25 
S      3.61474255       0.35975319       6.04529869       16 
S      1.80925075       3.24043926       5.00000000       16 
Mn      3.61304791       5.44420722       8.13397696       25 
Mn      1.81094198       2.56351931       9.17442330       25 
S      1.80674143       0.35975319       9.17684849       16 
S      0.00124963       3.24043926       8.13154980       16 
Mn      1.80504679       5.44420722      11.26552676       25 
Mn      0.00294086       2.56351931      12.30597310       25 
S      3.61474255       0.35975319      12.30839829       16 
S      1.80925075       3.24043926      11.26309960       16 
Mn      1.80504679      11.20554223       5.00242716       25 
Mn      0.00294086       8.32485432       6.04287350       25 
S      3.61474255       6.12108819       6.04529869       16 
S      1.80925075       9.00177426       5.00000000       16 
Mn      3.61304791      11.20554223       8.13397696       25 
Mn      1.81094198       8.32485432       9.17442330       25 
S      1.80674143       6.12108819       9.17684849       16 
S      0.00124963       9.00177426       8.13154980       16 
Mn      1.80504679      11.20554223      11.26552676       25 
Mn      0.00294086       8.32485432      12.30597310       25 
S      3.61474255       6.12108819      12.30839829       16 
S      1.80925075       9.00177426      11.26309960       16 
Mn      5.42104903       5.44420722       5.00242716       25 
Mn      3.61894310       2.56351931       6.04287350       25 
S      7.23074479       0.35975319       6.04529869       16 
S      5.42525299       3.24043926       5.00000000       16 
Mn      7.22905015       5.44420722       8.13397696       25 
Mn      5.42694422       2.56351931       9.17442330       25 
S      5.42274367       0.35975319       9.17684849       16 
S      3.61725187       3.24043926       8.13154980       16 
Mn      5.42104903       5.44420722      11.26552676       25 
Mn      3.61894310       2.56351931      12.30597310       25 
S      7.23074479       0.35975319      12.30839829       16 
S      5.42525299       3.24043926      11.26309960       16 
Mn      5.42104903      11.20554223       5.00242716       25 
Mn      3.61894310       8.32485432       6.04287350       25 
S      7.23074479       6.12108819       6.04529869       16 
S      5.42525299       9.00177426       5.00000000       16 
Mn      7.22905015      11.20554223       8.13397696       25 
Mn      5.42694422       8.32485432       9.17442330       25 
S      5.42274367       6.12108819       9.17684849       16 
S      3.61725187       9.00177426       8.13154980       16 
Mn      5.42104903      11.20554223      11.26552676       25 
Mn      3.61894310       8.32485432      12.30597310       25 
S      7.23074479       6.12108819      12.30839829       16 
S      5.42525299       9.00177426      11.26309960       16 
