112
Lattice="13.2610233822 0.0 0.0 6.63051168508 11.4843831373 0.0 0.0 0.0 19.6018271171" Properties=species:S:1:pos:R:3:Z:I:1 unit_cell=conventional pbc="T T F"
S      6.63054280       3.82820389       6.22575313       16 
S      1.75941300       1.01591752       6.31196949       16 
S      3.31535886       3.71057371       6.31185671       16 
S      4.87102200       1.01574260       6.31190535       16 
S      3.31515283       0.11755400       9.10193341       16 
S      1.75948969       2.81238511       9.10188477       16 
S      3.31522473       5.74211539       9.18803699       16 
S      4.87109869       2.81221019       9.10182063       16 
Co      6.63051169       5.74219157       5.00000000       27 
Co      1.65762792       2.87109578       5.00000000       27 
Co      4.97288377       2.87109578       5.00000000       27 
Co      3.31525584       1.91406386       7.70689506       27 
Co      6.63051215       0.00000280       7.02660986       27 
Co      6.63051123       3.82812491       8.38718027       27 
S      3.31528696       1.91414003      11.63954326       16 
S      8.38992469       4.84404523      11.72575962       16 
S      6.63061470       1.79650985      11.72564684       16 
S      4.87102200       4.84387031      11.72569548       16 
S      3.31515283       3.94568171      14.51572354       16 
S      5.07474553       0.89832125      14.51567490       16 
S      6.63048057       3.82805154      14.60182712       16 
S      1.55584284       0.89814633      14.51561076       16 
Co      3.31525584       3.82812771      10.41379012       27 
Co      4.97288377       0.95703193      10.41379012       27 
Co      1.65762792       0.95703193      10.41379012       27 
Co      9.94576753       5.74219157      13.12068519       27 
Co      6.63051214       3.82813052      12.44039998       27 
Co      3.31525539       1.91406105      13.80097039       27 
S      9.94579865       9.57039545       6.22575313       16 
S      5.07466884       6.75810909       6.31196949       16 
S      6.63061470       9.45276528       6.31185671       16 
S      8.18627785       6.75793417       6.31190535       16 
S      6.63040868       5.85974557       9.10193341       16 
S      5.07474553       8.55457668       9.10188477       16 
S      6.63048057      11.48430696       9.18803699       16 
S      8.18635453       8.55440176       9.10182063       16 
Co      9.94576753      11.48438314       5.00000000       27 
Co      4.97288376       8.61328735       5.00000000       27 
Co      8.28813961       8.61328735       5.00000000       27 
Co      6.63051169       7.65625542       7.70689506       27 
Co      9.94576799       5.74219437       7.02660986       27 
Co      9.94576708       9.57031647       8.38718027       27 
S      6.63054280       7.65633160      11.63954326       16 
S     11.70518053      10.58623680      11.72575962       16 
S      9.94587054       7.53870142      11.72564684       16 
S      8.18627784      10.58606188      11.72569548       16 
S      6.63040867       9.68787328      14.51572354       16 
S      8.39000137       6.64051282      14.51567490       16 
S      9.94573641       9.57024310      14.60182712       16 
S      4.87109869       6.64033790      14.51561076       16 
Co      6.63051169       9.57031928      10.41379012       27 
Co      8.28813961       6.69922350      10.41379012       27 
Co      4.97288376       6.69922350      10.41379012       27 
Co     13.26102337      11.48438314      13.12068519       27 
Co      9.94576799       9.57032208      12.44039998       27 
Co      6.63051123       7.65625262      13.80097039       27 
S     13.26105450       3.82820389       6.22575313       16 
S      8.38992469       1.01591752       6.31196949       16 
S      9.94587055       3.71057371       6.31185671       16 
S     11.50153369       1.01574260       6.31190535       16 
S      9.94566452       0.11755400       9.10193341       16 
S      8.39000138       2.81238511       9.10188477       16 
S      9.94573642       5.74211539       9.18803699       16 
S     11.50161038       2.81221019       9.10182063       16 
Co     13.26102338       5.74219157       5.00000000       27 
Co      8.28813961       2.87109578       5.00000000       27 
Co     11.60339546       2.87109578       5.00000000       27 
Co      9.94576754       1.91406386       7.70689506       27 
Co     13.26102384       0.00000280       7.02660986       27 
Co     13.26102292       3.82812491       8.38718027       27 
S      9.94579865       1.91414003      11.63954326       16 
S     15.02043638       4.84404523      11.72575962       16 
S     13.26112639       1.79650985      11.72564684       16 
S     11.50153369       4.84387031      11.72569548       16 
S      9.94566452       3.94568171      14.51572354       16 
S     11.70525722       0.89832125      14.51567490       16 
S     13.26099226       3.82805154      14.60182712       16 
S      8.18635454       0.89814633      14.51561076       16 
Co      9.94576753       3.82812771      10.41379012       27 
Co     11.60339546       0.95703193      10.41379012       27 
Co      8.28813961       0.95703193      10.41379012       27 
Co     16.57627922       5.74219157      13.12068519       27 
Co     13.26102383       3.82813052      12.44039998       27 
Co      9.94576708       1.91406105      13.80097039       27 
S     16.57631034       9.57039545       6.22575313       16 
S     11.70518053       6.75810909       6.31196949       16 
S     13.26112639       9.45276528       6.31185671       16 
S     14.81678954       6.75793417       6.31190535       16 
S     13.26092037       5.85974557       9.10193341       16 
S     11.70525722       8.55457668       9.10188477       16 
S     13.26099226      11.48430696       9.18803699       16 
S     14.81686622       8.55440176       9.10182063       16 
Co     16.57627922      11.48438314       5.00000000       27 
Co     11.60339545       8.61328735       5.00000000       27 
Co     14.91865130       8.61328735       5.00000000       27 
Co     13.26102338       7.65625542       7.70689506       27 
Co     16.57627968       5.74219437       7.02660986       27 
Co     16.57627877       9.57031647       8.38718027       27 
S     13.26105449       7.65633160      11.63954326       16 
S     18.33569222      10.58623680      11.72575962       16 
S     16.57638223       7.53870142      11.72564684       16 
S     14.81678953      10.58606188      11.72569548       16 
S     13.26092036       9.68787328      14.51572354       16 
S     15.02051306       6.64051282      14.51567490       16 
S     16.57624811       9.57024310      14.60182712       16 
S     11.50161038       6.64033790      14.51561076       16 
Co     13.26102338       9.57031928      10.41379012       27 
Co     14.91865130       6.69922350      10.41379012       27 
Co     11.60339545       6.69922350      10.41379012       27 
Co     19.89153507      11.48438314      13.12068519       27 
Co     16.57627968       9.57032208      12.44039998       27 
Co     13.26102292       7.65625262      13.80097039       27 
