112
Lattice="13.2809613416 0.0 0.0 6.64048066677 11.5016499108 0.0 0.0 0.0 20.1666241219" Properties=species:S:1:pos:R:3:Z:I:1:magmoms:R:1 unit_cell=conventional pbc="T T F"
S      0.72548068       0.41876859       9.02372583       16       0.00306723 
S      5.81071054       5.15055193       6.39832336       16       0.00356145 
S      7.36579089       2.45675320       6.39843778       16       0.00354752 
S      5.81055653       3.35481380       8.93805341       16       0.00355571 
S      4.25505118       0.41865935       9.02349390       16       0.00354630 
S      9.13052547       5.27142391       6.48387894       16       0.00355448 
S      4.25488153       2.45664488       6.39820654       16       0.00306769 
S      2.48989079       3.47568625       9.02360835       16       0.00356020 
Co      4.15029984       4.31311939       7.71096630       27      -0.00154920 
Co      5.81042088       3.35464806       5.00000000       27      -0.00112099 
Co      5.81042088       1.43770540       7.71096630       27      -0.00120127 
Co      7.47054135       4.31311906       7.71096607       27       0.01164689 
Co      2.48895687       1.43700994       5.67724158       27       0.74221071 
Co      2.49141420       1.43840858       9.74469436       27       0.74212130 
S      4.04572102       2.33571025      14.44565559       16       0.00306723 
S      5.81071054       1.31666863      11.82025313       16       0.00356145 
S      4.04555055       4.37369486      11.82036755       16       0.00354752 
S      9.13079687       5.27175546      14.35998318       16       0.00355571 
S      7.57529151       2.33560100      14.44542367       16       0.00354630 
S      2.49004480       1.43754061      11.90580870       16       0.00355448 
S      7.57512186       4.37358653      11.82013630       16       0.00306769 
S      5.81013112       5.39262791      14.44553811       16       0.00356020 
Co      4.15029983       0.47923609      13.13289607       27      -0.00154920 
Co      9.13066121       5.27158971      10.42192977       27      -0.00112099 
Co      2.49018054       3.35464706      13.13289607       27      -0.00120127 
Co      0.83006067       0.47923576      13.13289584       27       0.01164689 
Co      5.80919720       3.35395160      11.09917135       27       0.74221071 
Co      5.81165453       3.35535023      15.16662412       27       0.74212130 
S      4.04572102       6.16959355       9.02372583       16       0.00306723 
S      9.13095087      10.90137688       6.39832336       16       0.00356145 
S     10.68603122       8.20757816       6.39843778       16       0.00354752 
S      9.13079687       9.10563876       8.93805341       16       0.00355571 
S      7.57529152       6.16948430       9.02349390       16       0.00354630 
S     12.45076580      11.02224886       6.48387894       16       0.00355448 
S      7.57512187       8.20746983       6.39820654       16       0.00306769 
S      5.81013112       9.22651121       9.02360835       16       0.00356020 
Co      7.47054017      10.06394434       7.71096630       27      -0.00154920 
Co      9.13066121       9.10547301       5.00000000       27      -0.00112099 
Co      9.13066121       7.18853036       7.71096630       27      -0.00120127 
Co     10.79078168      10.06394402       7.71096607       27       0.01164689 
Co      5.80919720       7.18783490       5.67724158       27       0.74221071 
Co      5.81165454       7.18923354       9.74469436       27       0.74212130 
S      7.36596135       8.08653520      14.44565559       16       0.00306723 
S      9.13095087       7.06749358      11.82025313       16       0.00356145 
S      7.36579088      10.12451981      11.82036755       16       0.00354752 
S     12.45103720      11.02258041      14.35998318       16       0.00355571 
S     10.89553185       8.08642596      14.44542367       16       0.00354630 
S      5.81028513       7.18836556      11.90580870       16       0.00355448 
S     10.89536220      10.12441149      11.82013630       16       0.00306769 
S      9.13037145      11.14345286      14.44553811       16       0.00356020 
Co      7.47054017       6.23006104      13.13289607       27      -0.00154920 
Co     12.45090154      11.02241467      10.42192977       27      -0.00112099 
Co      5.81042087       9.10547201      13.13289607       27      -0.00120127 
Co      4.15030101       6.23006072      13.13289584       27       0.01164689 
Co      9.12943753       9.10477656      11.09917135       27       0.74221071 
Co      9.13189487       9.10617519      15.16662412       27       0.74212130 
S      7.36596136       0.41876859       9.02372583       16       0.00306723 
S     12.45119121       5.15055193       6.39832336       16       0.00356145 
S     14.00627156       2.45675320       6.39843778       16       0.00354752 
S     12.45103721       3.35481380       8.93805341       16       0.00355571 
S     10.89553185       0.41865935       9.02349390       16       0.00354630 
S     15.77100614       5.27142391       6.48387894       16       0.00355448 
S     10.89536220       2.45664488       6.39820654       16       0.00306769 
S      9.13037146       3.47568625       9.02360835       16       0.00356020 
Co     10.79078051       4.31311939       7.71096630       27      -0.00154920 
Co     12.45090155       3.35464806       5.00000000       27      -0.00112099 
Co     12.45090155       1.43770540       7.71096630       27      -0.00120127 
Co     14.11102202       4.31311906       7.71096607       27       0.01164689 
Co      9.12943754       1.43700994       5.67724158       27       0.74221071 
Co      9.13189487       1.43840858       9.74469436       27       0.74212130 
S     10.68620169       2.33571025      14.44565559       16       0.00306723 
S     12.45119121       1.31666863      11.82025313       16       0.00356145 
S     10.68603122       4.37369486      11.82036755       16       0.00354752 
S     15.77127754       5.27175546      14.35998318       16       0.00355571 
S     14.21577218       2.33560100      14.44542367       16       0.00354630 
S      9.13052547       1.43754061      11.90580870       16       0.00355448 
S     14.21560253       4.37358653      11.82013630       16       0.00306769 
S     12.45061179       5.39262791      14.44553811       16       0.00356020 
Co     10.79078051       0.47923609      13.13289607       27      -0.00154920 
Co     15.77114188       5.27158971      10.42192977       27      -0.00112099 
Co      9.13066121       3.35464706      13.13289607       27      -0.00120127 
Co      7.47054134       0.47923576      13.13289584       27       0.01164689 
Co     12.44967787       3.35395160      11.09917135       27       0.74221071 
Co     12.45213520       3.35535023      15.16662412       27       0.74212130 
S     10.68620169       6.16959355       9.02372583       16       0.00306723 
S     15.77143154      10.90137688       6.39832336       16       0.00356145 
S     17.32651190       8.20757816       6.39843778       16       0.00354752 
S     15.77127754       9.10563876       8.93805341       16       0.00355571 
S     14.21577219       6.16948430       9.02349390       16       0.00354630 
S     19.09124647      11.02224886       6.48387894       16       0.00355448 
S     14.21560254       8.20746983       6.39820654       16       0.00306769 
S     12.45061179       9.22651121       9.02360835       16       0.00356020 
Co     14.11102084      10.06394434       7.71096630       27      -0.00154920 
Co     15.77114188       9.10547301       5.00000000       27      -0.00112099 
Co     15.77114188       7.18853036       7.71096630       27      -0.00120127 
Co     17.43126235      10.06394402       7.71096607       27       0.01164689 
Co     12.44967787       7.18783490       5.67724158       27       0.74221071 
Co     12.45213521       7.18923354       9.74469436       27       0.74212130 
S     14.00644202       8.08653520      14.44565559       16       0.00306723 
S     15.77143154       7.06749358      11.82025313       16       0.00356145 
S     14.00627156      10.12451981      11.82036755       16       0.00354752 
S     19.09151787      11.02258041      14.35998318       16       0.00355571 
S     17.53601252       8.08642596      14.44542367       16       0.00354630 
S     12.45076580       7.18836556      11.90580870       16       0.00355448 
S     17.53584287      10.12441149      11.82013630       16       0.00306769 
S     15.77085212      11.14345286      14.44553811       16       0.00356020 
Co     14.11102084       6.23006104      13.13289607       27      -0.00154920 
Co     19.09138221      11.02241467      10.42192977       27      -0.00112099 
Co     12.45090154       9.10547201      13.13289607       27      -0.00120127 
Co     10.79078168       6.23006072      13.13289584       27       0.01164689 
Co     15.76991820       9.10477656      11.09917135       27       0.74221071 
Co     15.77237554       9.10617519      15.16662412       27       0.74212130 
